


 16 15  0  0000  0  0  0  0  0999 V2000
    5.4641    0.5000    0.0000 S   0  0  0  0  0  0  0  0  0  0  0
    4.5981    0.0000    0.0000 P   0  0  0  0  0  0  0  0  0  0  0
    3.7321   -0.5000    0.0000 O   0  0  0  0  0  0  0  0  0  0  0
    5.0981   -0.8660    0.0000 O   0  0  0  0  0  0  0  0  0  0  0
    8.0622    0.0000    0.0000 N   0  0  0  0  0  0  0  0  0  0  0
    8.9282    0.5000    0.0000 C   0  0  0  0  0  0  0  0  0  0  0
    8.0622   -1.0000    0.0000 C   0  0  0  0  0  0  0  0  0  0  0
    7.1962    0.5000    0.0000 C   0  0  0  0  0  0  0  0  0  0  0
    6.3301    0.0000    0.0000 C   0  0  0  0  0  0  0  0  0  0  0
    8.9282    1.5000    0.0000 C   0  0  0  0  0  0  0  0  0  0  0
    9.7942    0.0000    0.0000 C   0  0  0  0  0  0  0  0  0  0  0
    7.1962   -1.5000    0.0000 C   0  0  0  0  0  0  0  0  0  0  0
    8.9282   -1.5000    0.0000 C   0  0  0  0  0  0  0  0  0  0  0
    4.0981    0.8660    0.0000 C   0  0  0  0  0  0  0  0  0  0  0
    2.8660    0.0000    0.0000 C   0  0  0  0  0  0  0  0  0  0  0
    2.0000   -0.5000    0.0000 C   0  0  0  0  0  0  0  0  0  0  0
  1  2  1  0
  1  9  1  0
  2  3  1  0
  2  4  2  0
  2 14  1  0
  3 15  1  0
  5  6  1  0
  5  7  1  0
  5  8  1  0
  6 10  1  0
  6 11  1  0
  7 12  1  0
  7 13  1  0
  8  9  1  0
 15 16  1  0
M  END

> <PUBCHEM_BONDANNOTATIONS>
2  14  3

$$$$
